*HEADING
  Growth simulation by rectagular expander
  It is designed to produce lowest fidelity simulation
*********************************************************
** paper, Zöllner et al., "Growth on demand: Reviewing **
** the mechanobiology of stretched skin", referred.    **
**                                                     **
** Input file is written by Taeksang Lee               **
*********************************************************
**
*PARAMETER
lam= 0.598
mu= 0.814
xn0_1=0.
xn0_2=0.
xn0_3=1.
kk= 0.432
tcrt=1.1567
mm= 1.000
nn= 1.000
t_init1=0.005
t_init2=0.05
t_max1=0.005
t_max2=0.05
**
******************************************************
****************************************************** MODEL DEFINITION
******************************************************
*Part, name=skin
*Node
       1,         100.,         100.,           3.
      2,         100.,          95.,           3.
      3,         100.,          90.,           3.
      4,         100.,          85.,           3.
      5,         100.,          80.,           3.
      6,         100.,          75.,           3.
      7,         100.,          70.,           3.
      8,         100.,          65.,           3.
      9,         100.,          60.,           3.
     10,         100.,          55.,           3.
     11,         100.,          50.,           3.
     12,         100.,          45.,           3.
     13,         100.,          40.,           3.
     14,         100.,          35.,           3.
     15,         100.,          30.,           3.
     16,         100.,          25.,           3.
     17,         100.,          20.,           3.
     18,         100.,          15.,           3.
     19,         100.,          10.,           3.
     20,         100.,           5.,           3.
** ... 1303 like lines cut
*Element, type=C3D8, elset=elskin
  1,   64,   65,   86,   85,    1,    2,   23,   22
  2,   65,   66,   87,   86,    2,    3,   24,   23
  3,   66,   67,   88,   87,    3,    4,   25,   24
  4,   67,   68,   89,   88,    4,    5,   26,   25
  5,   68,   69,   90,   89,    5,    6,   27,   26
  6,   69,   70,   91,   90,    6,    7,   28,   27
  7,   70,   71,   92,   91,    7,    8,   29,   28
  8,   71,   72,   93,   92,    8,    9,   30,   29
  9,   72,   73,   94,   93,    9,   10,   31,   30
 10,   73,   74,   95,   94,   10,   11,   32,   31
 11,   74,   75,   96,   95,   11,   12,   33,   32
 12,   75,   76,   97,   96,   12,   13,   34,   33
 13,   76,   77,   98,   97,   13,   14,   35,   34
 14,   77,   78,   99,   98,   14,   15,   36,   35
 15,   78,   79,  100,   99,   15,   16,   37,   36
 16,   79,   80,  101,  100,   16,   17,   38,   37
 17,   80,   81,  102,  101,   17,   18,   39,   38
 18,   81,   82,  103,  102,   18,   19,   40,   39
 19,   82,   83,  104,  103,   19,   20,   41,   40
 20,   83,   84,  105,  104,   20,   21,   42,   41
** ... 780 like lines cut
*Solid Section, elset=elskin, material=tissue
,
*end part
*PART, name=expander
*Node, nset=nall
1,30.000000,20.000000,-2.500000
2,34.444444,20.000000,-2.500000
3,30.000000,23.750000,-2.500000
4,34.444444,23.750000,-2.500000
5,30.000000,27.500000,-2.500000
6,34.444444,27.500000,-2.500000
7,30.000000,20.000000,0.000000
8,34.444444,20.000000,0.000000
9,30.000000,27.500000,0.000000
10,30.000000,23.750000,0.000000
11,34.444444,23.750000,0.000000
12,34.444444,27.500000,0.000000
13,30.000000,31.250000,-2.500000
14,34.444444,31.250000,-2.500000
15,30.000000,35.000000,-2.500000
16,34.444444,35.000000,-2.500000
17,30.000000,38.750000,-2.500000
18,34.444444,38.750000,-2.500000
19,30.000000,38.750000,0.000000
20,30.000000,35.000000,0.000000
** ... 322 like lines cut
************************************************
************************************************ element definition for fluid cavity
************************************************
*Element, type=F3D4, elset=elfluid
1,1,2,4,3
2,2,69,70,4
3,69,103,105,70
4,103,104,106,105
5,104,171,172,106
6,171,207,209,172
7,207,208,210,209
8,208,275,277,210
9,275,276,278,277
10,3,4,6,5
11,4,70,71,6
12,70,105,107,71
13,105,106,108,107
14,106,172,173,108
15,172,209,211,173
16,209,210,212,211
17,210,277,279,212
18,277,278,280,279
19,5,6,14,13
20,6,71,75,14
** ... 318 like lines cut
************************************************
************************************************
************************************************
*Element, type=S4R, elset=elexpd
339,1,2,4,3
340,2,69,70,4
341,69,103,105,70
342,103,104,106,105
343,104,171,172,106
344,171,207,209,172
345,207,208,210,209
346,208,275,277,210
347,275,276,278,277
348,3,4,6,5
349,4,70,71,6
350,70,105,107,71
351,105,106,108,107
352,106,172,173,108
353,172,209,211,173
354,209,210,212,211
355,210,277,279,212
356,277,278,280,279
357,5,6,14,13
358,6,71,75,14
** ... 318 like lines cut
*NODE, NSET=MFLUID
**9999, 50., 50., -1.25
343, 50., 50., -1.25
**FlUID PROPERTY, NAME=water, ELSET=elfluid, REF NODE=9999,TYPE=hydraulic
*FlUID PROPERTY, NAME=water, ELSET=elfluid, REF NODE=343,TYPE=hydraulic
*FLUID DENSITY
 9.97E-7
*FLUID BULK MODULUS
 2.2E3
**
*Shell Section, ELSET=elexpd, MATERIAL=si
 1.,5
*END PART
*assembly, name=assembly-1
*instance, name=inst-expander, part=expander
**
*END INSTANCE
*instance, name=inst-skin, part=skin
**
*END INSTANCE
*Nset, nset=nexpd_all, generate, internal, instance=inst-expander, unsorted
1, 342,     1
*Nset, nset=nexpd_all2, generate, internal, instance=inst-expander, unsorted
1000, 1341,     1
*Nset, nset=nexpd_bt, instance=inst-expander
  1,   2,   3,   4,   5,   6,  13,  14,  15,  16,  17,  18,  25,  26,  27,  28
  33,  34,  35,  36,  37,  38,  45,  46,  47,  48,  49,  50,  57,  58,  59,  60
  61,  62,  69,  70,  71,  75,  76,  77,  81,  82,  85,  86,  87,  91,  92,  93
  97,  98,  99, 103, 104, 105, 106, 107, 108, 115, 116, 117, 118, 119, 120, 127
 128, 129, 130, 135, 136, 137, 138, 139, 140, 147, 148, 149, 150, 151, 152, 159
 160, 161, 162, 163, 164, 171, 172, 173, 177, 178, 179, 183, 184, 187, 188, 189
 193, 194, 195, 199, 200, 201, 202, 207, 208, 209, 210, 211, 212, 219, 220, 221
 222, 223, 224, 231, 232, 233, 234, 239, 240, 241, 242, 243, 244, 251, 252, 253
 254, 255, 256, 263, 264, 265, 266, 267, 268, 275, 276, 277, 278, 279, 280, 287
 288, 289, 290, 291, 292, 299, 300, 301, 302, 307, 308, 309, 310, 311, 312, 319
 320, 321, 322, 323, 324, 331, 332, 333, 334, 335, 336
*Elset, elset=el_fluid, generate, internal, INSTANCE=inst-expander
1, 338,     1
*Elset, elset=_surf_expd, generate, internal, INSTANCE=inst-expander
339, 676,     1
*Surface, type=ELEMENT, name=surf_expd
_surf_expd, SNEG
*Elset, elset=_surf_skin, internal, instance=inst-skin
  21,  22,  23,  24,  25,  26,  27,  28,  29,  30,  31,  32,  33,  34,  35,  36
  37,  38,  39,  40,  61,  62,  63,  64,  65,  66,  67,  68,  69,  70,  71,  72
  73,  74,  75,  76,  77,  78,  79,  80, 101, 102, 103, 104, 105, 106, 107, 108
 109, 110, 111, 112, 113, 114, 115, 116, 117, 118, 119, 120, 141, 142, 143, 144
 145, 146, 147, 148, 149, 150, 151, 152, 153, 154, 155, 156, 157, 158, 159, 160
 181, 182, 183, 184, 185, 186, 187, 188, 189, 190, 191, 192, 193, 194, 195, 196
 197, 198, 199, 200, 221, 222, 223, 224, 225, 226, 227, 228, 229, 230, 231, 232
 233, 234, 235, 236, 237, 238, 239, 240, 261, 262, 263, 264, 265, 266, 267, 268
 269, 270, 271, 272, 273, 274, 275, 276, 277, 278, 279, 280, 301, 302, 303, 304
 305, 306, 307, 308, 309, 310, 311, 312, 313, 314, 315, 316, 317, 318, 319, 320
 341, 342, 343, 344, 345, 346, 347, 348, 349, 350, 351, 352, 353, 354, 355, 356
 357, 358, 359, 360, 381, 382, 383, 384, 385, 386, 387, 388, 389, 390, 391, 392
 393, 394, 395, 396, 397, 398, 399, 400, 421, 422, 423, 424, 425, 426, 427, 428
 429, 430, 431, 432, 433, 434, 435, 436, 437, 438, 439, 440, 461, 462, 463, 464
 465, 466, 467, 468, 469, 470, 471, 472, 473, 474, 475, 476, 477, 478, 479, 480
 501, 502, 503, 504, 505, 506, 507, 508, 509, 510, 511, 512, 513, 514, 515, 516
 517, 518, 519, 520, 541, 542, 543, 544, 545, 546, 547, 548, 549, 550, 551, 552
 553, 554, 555, 556, 557, 558, 559, 560, 581, 582, 583, 584, 585, 586, 587, 588
 589, 590, 591, 592, 593, 594, 595, 596, 597, 598, 599, 600, 621, 622, 623, 624
 625, 626, 627, 628, 629, 630, 631, 632, 633, 634, 635, 636, 637, 638, 639, 640
** ... 5 like lines cut
*Surface, type=ELEMENT, name=surf_skin
_surf_skin, S5
******************************************
******************************************
******************************************
*Elset, elset=elskin, generate, internal, INSTANCE=inst-skin
    1,  800,     1
*Nset, nset=nskin_fixed_broad, internal, INSTANCE=inst-skin
   43,    44,    45,    46,    47,    48,    49,    50,    51,    52,    53,    54,    55,    56,    57,    58
   59,    60,    61,    62,    63,   106,   107,   108,   109,   110,   111,   112,   113,   114,   115,   116
  117,   118,   119,   120,   121,   122,   123,   124,   125,   126,   169,   170,   188,   189,   232,   233
  251,   252,   295,   296,   314,   315,   358,   359,   377,   378,   421,   422,   440,   441,   484,   485
  503,   504,   547,   548,   566,   567,   610,   611,   629,   630,   673,   674,   692,   693,   736,   737
  755,   756,   799,   800,   818,   819,   862,   863,   881,   882,   925,   926,   944,   945,   988,   989
 1007,  1008,  1051,  1052,  1070,  1071,  1114,  1115,  1133,  1134,  1177,  1178,  1196,  1197,  1240,  1241
 1242,  1243,  1244,  1245,  1246,  1247,  1248,  1249,  1250,  1251,  1252,  1253,  1254,  1255,  1256,  1257
 1258,  1259,  1260,  1303,  1304,  1305,  1306,  1307,  1308,  1309,  1310,  1311,  1312,  1313,  1314,  1315
 1316,  1317,  1318,  1319,  1320,  1321,  1322,  1323

*Nset, nset=nskin_fixed, internal, INSTANCE=inst-skin
   43,   44,   45,   46,   47,   48,   49,   50,   51,   52,   53,   54,   55,   56,   57,   58
   59,   60,   61,   62,   63,  106,  107,  108,  109,  110,  111,  112,  113,  114,  115,  116
  117,  118,  119,  120,  121,  122,  123,  124,  125,  126,  169,  170,  171,  172,  173,  174
  175,  176,  177,  178,  179,  180,  181,  182,  183,  184,  185,  186,  187,  188,  189,  232
  233,  234,  235,  236,  237,  238,  239,  240,  241,  242,  243,  244,  245,  246,  247,  248
  249,  250,  251,  252,  295,  296,  297,  298,  299,  300,  301,  302,  303,  304,  305,  306
  307,  308,  309,  310,  311,  312,  313,  314,  315,  358,  359,  377,  378,  421,  422,  440
  441,  484,  485,  503,  504,  547,  548,  566,  567,  610,  611,  629,  630,  673,  674,  692
  693,  736,  737,  755,  756,  799,  800,  818,  819,  862,  863,  881,  882,  925,  926,  944
  945,  988,  989, 1007, 1008, 1051, 1052, 1053, 1054, 1055, 1056, 1057, 1058, 1059, 1060, 1061
 1062, 1063, 1064, 1065, 1066, 1067, 1068, 1069, 1070, 1071, 1114, 1115, 1116, 1117, 1118, 1119
 1120, 1121, 1122, 1123, 1124, 1125, 1126, 1127, 1128, 1129, 1130, 1131, 1132, 1133, 1134, 1177
 1178, 1179, 1180, 1181, 1182, 1183, 1184, 1185, 1186, 1187, 1188, 1189, 1190, 1191, 1192, 1193
 1194, 1195, 1196, 1197, 1240, 1241, 1242, 1243, 1244, 1245, 1246, 1247, 1248, 1249, 1250, 1251
 1252, 1253, 1254, 1255, 1256, 1257, 1258, 1259, 1260, 1303, 1304, 1305, 1306, 1307, 1308, 1309
 1310, 1311, 1312, 1313, 1314, 1315, 1316, 1317, 1318, 1319, 1320, 1321, 1322, 1323
*Nset, nset=nskin_fixed_outer, internal, INSTANCE=inst-skin
1,    2,    3,    4,    5,    6,    7,    8,    9,   10,   11,   12,   13,   14,   15,   16
   17,   18,   19,   20,   21,   22,   23,   24,   25,   26,   27,   28,   29,   30,   31,   32
   33,   34,   35,   36,   37,   38,   39,   40,   41,   42,   64,   84,   85,  105,  127,  147
  148,  168,  190,  210,  211,  231,  253,  273,  274,  294,  316,  336,  337,  357,  379,  399
  400,  420,  442,  462,  463,  483,  505,  525,  526,  546,  568,  588,  589,  609,  631,  651
  652,  672,  694,  714,  715,  735,  757,  777,  778,  798,  820,  840,  841,  861,  883,  903
  904,  924,  946,  966,  967,  987, 1009, 1029, 1030, 1050, 1072, 1092, 1093, 1113, 1135, 1155
 1156, 1176, 1198, 1218, 1219, 1239, 1261, 1262, 1263, 1264, 1265, 1266, 1267, 1268, 1269, 1270
 1271, 1272, 1273, 1274, 1275, 1276, 1277, 1278, 1279, 1280, 1281, 1282, 1283, 1284, 1285, 1286
 1287, 1288, 1289, 1290, 1291, 1292, 1293, 1294, 1295, 1296, 1297, 1298, 1299, 1300, 1301, 1302
*end assembly
*************************
************************* expander properties as silicon
*************************
*Material, name=si
*Expansion
1000.
*Hyperelastic, neo hooke
0.43631, 0.013
*************************
************************* skin material with growth user materials
*************************
*Material, name=tissue
*Depvar
6
*User Material, constants=9, unsymm
<lam>, <mu>, <xn0_1>, <xn0_2>,<xn0_3>, <kk> , <tcrt>, <mm>
<nn>
*INITIAL CONDITIONS, TYPE=SOLUTION, USER
*************************
************************* BOUNDARY CONDITIONS
*************************
*BOUNDARY
nexpd_bt, 1, 1
nexpd_bt, 2, 2
nexpd_bt, 3, 3
**nskin_fixed, 1, 1
**nskin_fixed, 2, 2
**nskin_fixed, 3, 3
nskin_fixed_broad,1,1
nskin_fixed_broad,2,2
nskin_fixed_broad,3,3
nskin_fixed_outer, 1, 1
nskin_fixed_outer, 2, 2
nskin_fixed_outer, 3, 3
*Nset, nset=nall, generate, internal, instance=inst-expander
1, 342,     1
*************************
************************* AMPLITUDE INFORMATION
*************************
*Amplitude, name=AMP_PID, definition=user
**0.,0., 2.,1., 6.,1., 8.,0.
*************************
************************* INTERACTION
*************************
*Surface Interaction, name=contct
1.,
*Friction
0.,
*Contact Pair, interaction=contct, type=SURFACE TO SURFACE
**Contact Pair, interaction=contct
surf_skin, surf_expd
*************************
************************* STEP
*************************
*Step, name=Step-1, nlgeom=YES, inc=100000
*Static
**include, input=param.param
<t_init1>, 8, 1e-09, 0.05
*Nset, nset=nall, generate, internal, instance=inst-expander
1, 342,     1
*NSET, NSET=MFLUID, internal, INSTANCE=inst-expander
343
*Boundary, amplitude=AMP_PID
MFLUID, 8, 8, 1.0
*Output, field, time interval=0.1
*Node Output
U,COORD
*Element Output
S,COORD,SDV,EVOL
*Output, history, SENSOR, name=VOL_EXP
*NODE OUTPUT, NSET=MFLUID
CVOL
*Output, history, SENSOR, name=PRES_EXP
*NODE OUTPUT, NSET=MFLUID
PCAV
*End Step
*Step, name=Step-2, nlgeom=YES, inc=100000
*Static
**include, input=param.param
1, 22, 1e-09, 0.1
*Nset, nset=nall, generate, internal, instance=inst-expander
1, 342,     1
*NSET, NSET=MFLUID, internal, INSTANCE=inst-expander
343
*Boundary, amplitude=AMP_PID
MFLUID, 8, 8, 1.0
*Output, field, time interval=0.1
*Node Output
U,COORD
*Element Output
S,COORD,SDV,EVOL
*Output, history, SENSOR, name=VOL_EXP
*NODE OUTPUT, NSET=MFLUID
CVOL
*Output, history, SENSOR, name=PRES_EXP
*NODE OUTPUT, NSET=MFLUID
PCAV
*End Step
